GECCO_WCCI2024_Platform/case_study/37bus/ieee37_VLN_Node.Txt

LINE-GROUND and LINE-LINE VOLTAGES BY BUS & NODE

Bus       Node    VLN (kV)   Angle      pu     Base kV    Node-Node   VLL (kV)  Angle      pu

SOURCEBUS 1       132.79 /_    0.0         1   230.000        1-2        230 /_   30.0         1
   -      2       132.79 /_ -120.0         1   230.000        2-3        230 /_  -90.0         1
   -      3       132.79 /_  120.0         1   230.000        3-1        230 /_  150.0         1
799 ..... 1       2.7708 /_    0.0   0.99984     4.800        1-2        4.8 /_   30.0         1
   -      2       2.7722 /_ -120.0    1.0003     4.800        2-3        4.8 /_  -90.0         1
   -      3       2.7708 /_  120.0   0.99984     4.800        3-1        4.8 /_  150.0         1
709 ..... 1       2.7708 /_    0.0   0.99984     4.800        1-2        4.8 /_   30.0         1
   -      2       2.7722 /_ -120.0    1.0003     4.800        2-3        4.8 /_  -90.0         1
   -      3       2.7708 /_  120.0   0.99984     4.800        3-1        4.8 /_  150.0         1
775 ..... 1      0.27713 /_    0.0         1     0.480        1-2       0.48 /_   30.0         1
   -      2      0.27713 /_ -120.0         1     0.480        2-3       0.48 /_  -90.0         1
   -      3      0.27713 /_  120.0         1     0.480        3-1       0.48 /_  150.0         1
701 ..... 1       2.7708 /_    0.0   0.99984     4.800        1-2        4.8 /_   30.0         1
   -      2       2.7722 /_ -120.0    1.0003     4.800        2-3        4.8 /_  -90.0         1
   -      3       2.7708 /_  120.0   0.99984     4.800        3-1        4.8 /_  150.0         1
702 ..... 1       2.7708 /_    0.0   0.99984     4.800        1-2        4.8 /_   30.0         1
   -      2       2.7722 /_ -120.0    1.0003     4.800        2-3        4.8 /_  -90.0         1
   -      3       2.7708 /_  120.0   0.99984     4.800        3-1        4.8 /_  150.0         1
705 ..... 1       2.7708 /_    0.0   0.99984     4.800        1-2        4.8 /_   30.0         1
   -      2       2.7722 /_ -120.0    1.0003     4.800        2-3        4.8 /_  -90.0         1
   -      3       2.7708 /_  120.0   0.99984     4.800        3-1        4.8 /_  150.0         1
713 ..... 1       2.7708 /_    0.0   0.99984     4.800        1-2        4.8 /_   30.0         1
   -      2       2.7722 /_ -120.0    1.0003     4.800        2-3        4.8 /_  -90.0         1
   -      3       2.7708 /_  120.0   0.99984     4.800        3-1        4.8 /_  150.0         1
703 ..... 1       2.7708 /_    0.0   0.99984     4.800        1-2        4.8 /_   30.0         1
   -      2       2.7722 /_ -120.0    1.0003     4.800        2-3        4.8 /_  -90.0         1
   -      3       2.7708 /_  120.0   0.99984     4.800        3-1        4.8 /_  150.0         1
727 ..... 1       2.7708 /_    0.0   0.99984     4.800        1-2        4.8 /_   30.0         1
   -      2       2.7722 /_ -120.0    1.0003     4.800        2-3        4.8 /_  -90.0         1
   -      3       2.7708 /_  120.0   0.99984     4.800        3-1        4.8 /_  150.0         1
730 ..... 1       2.7708 /_    0.0   0.99984     4.800        1-2        4.8 /_   30.0         1
   -      2       2.7722 /_ -120.0    1.0003     4.800        2-3        4.8 /_  -90.0         1
   -      3       2.7708 /_  120.0   0.99984     4.800        3-1        4.8 /_  150.0         1
704 ..... 1       2.7708 /_    0.0   0.99984     4.800        1-2        4.8 /_   30.0         1
   -      2       2.7722 /_ -120.0    1.0003     4.800        2-3        4.8 /_  -90.0         1
   -      3       2.7708 /_  120.0   0.99984     4.800        3-1        4.8 /_  150.0         1
714 ..... 1       2.7708 /_    0.0   0.99984     4.800        1-2        4.8 /_   30.0         1
   -      2       2.7722 /_ -120.0    1.0003     4.800        2-3        4.8 /_  -90.0         1
   -      3       2.7708 /_  120.0   0.99984     4.800        3-1        4.8 /_  150.0         1
720 ..... 1       2.7708 /_    0.0   0.99984     4.800        1-2        4.8 /_   30.0         1
   -      2       2.7722 /_ -120.0    1.0003     4.800        2-3        4.8 /_  -90.0         1
   -      3       2.7708 /_  120.0   0.99984     4.800        3-1        4.8 /_  150.0         1
742 ..... 1       2.7708 /_    0.0   0.99984     4.800        1-2        4.8 /_   30.0         1
   -      2       2.7722 /_ -120.0    1.0003     4.800        2-3        4.8 /_  -90.0         1
   -      3       2.7708 /_  120.0   0.99984     4.800        3-1        4.8 /_  150.0         1
712 ..... 1       2.7708 /_    0.0   0.99984     4.800        1-2        4.8 /_   30.0         1
   -      2       2.7722 /_ -120.0    1.0003     4.800        2-3        4.8 /_  -90.0         1
   -      3       2.7708 /_  120.0   0.99984     4.800        3-1        4.8 /_  150.0         1
706 ..... 1       2.7708 /_    0.0   0.99984     4.800        1-2        4.8 /_   30.0         1
   -      2       2.7722 /_ -120.0    1.0003     4.800        2-3        4.8 /_  -90.0         1
   -      3       2.7708 /_  120.0   0.99984     4.800        3-1        4.8 /_  150.0         1
725 ..... 1       2.7708 /_    0.0   0.99984     4.800        1-2        4.8 /_   30.0         1
   -      2       2.7722 /_ -120.0    1.0003     4.800        2-3        4.8 /_  -90.0         1
   -      3       2.7708 /_  120.0   0.99984     4.800        3-1        4.8 /_  150.0         1
707 ..... 1       2.7708 /_    0.0   0.99984     4.800        1-2        4.8 /_   30.0         1
   -      2       2.7722 /_ -120.0    1.0003     4.800        2-3        4.8 /_  -90.0         1
   -      3       2.7708 /_  120.0   0.99984     4.800        3-1        4.8 /_  150.0         1
724 ..... 1       2.7708 /_    0.0   0.99984     4.800        1-2        4.8 /_   30.0         1
   -      2       2.7722 /_ -120.0    1.0003     4.800        2-3        4.8 /_  -90.0         1
   -      3       2.7708 /_  120.0   0.99984     4.800        3-1        4.8 /_  150.0         1
722 ..... 1       2.7708 /_    0.0   0.99984     4.800        1-2        4.8 /_   30.0         1
   -      2       2.7722 /_ -120.0    1.0003     4.800        2-3        4.8 /_  -90.0         1
   -      3       2.7708 /_  120.0   0.99984     4.800        3-1        4.8 /_  150.0         1
708 ..... 1       2.7708 /_    0.0   0.99984     4.800        1-2        4.8 /_   30.0         1
   -      2       2.7722 /_ -120.0    1.0003     4.800        2-3        4.8 /_  -90.0         1
   -      3       2.7708 /_  120.0   0.99984     4.800        3-1        4.8 /_  150.0         1
733 ..... 1       2.7708 /_    0.0   0.99984     4.800        1-2        4.8 /_   30.0         1
   -      2       2.7722 /_ -120.0    1.0003     4.800        2-3        4.8 /_  -90.0         1
   -      3       2.7708 /_  120.0   0.99984     4.800        3-1        4.8 /_  150.0         1
732 ..... 1       2.7708 /_    0.0   0.99984     4.800        1-2        4.8 /_   30.0         1
   -      2       2.7722 /_ -120.0    1.0003     4.800        2-3        4.8 /_  -90.0         1
   -      3       2.7708 /_  120.0   0.99984     4.800        3-1        4.8 /_  150.0         1
731 ..... 1       2.7708 /_    0.0   0.99984     4.800        1-2        4.8 /_   30.0         1
   -      2       2.7722 /_ -120.0    1.0003     4.800        2-3        4.8 /_  -90.0         1
   -      3       2.7708 /_  120.0   0.99984     4.800        3-1        4.8 /_  150.0         1
710 ..... 1       2.7708 /_    0.0   0.99984     4.800        1-2        4.8 /_   30.0         1
   -      2       2.7722 /_ -120.0    1.0003     4.800        2-3        4.8 /_  -90.0         1
   -      3       2.7708 /_  120.0   0.99984     4.800        3-1        4.8 /_  150.0         1
735 ..... 1       2.7708 /_    0.0   0.99984     4.800        1-2        4.8 /_   30.0         1
   -      2       2.7722 /_ -120.0    1.0003     4.800        2-3        4.8 /_  -90.0         1
   -      3       2.7708 /_  120.0   0.99984     4.800        3-1        4.8 /_  150.0         1
736 ..... 1       2.7708 /_    0.0   0.99984     4.800        1-2        4.8 /_   30.0         1
   -      2       2.7722 /_ -120.0    1.0003     4.800        2-3        4.8 /_  -90.0         1
   -      3       2.7708 /_  120.0   0.99984     4.800        3-1        4.8 /_  150.0         1
711 ..... 1       2.7708 /_    0.0   0.99984     4.800        1-2        4.8 /_   30.0         1
   -      2       2.7722 /_ -120.0    1.0003     4.800        2-3        4.8 /_  -90.0         1
   -      3       2.7708 /_  120.0   0.99984     4.800        3-1        4.8 /_  150.0         1
741 ..... 1       2.7708 /_    0.0   0.99984     4.800        1-2        4.8 /_   30.0         1
   -      2       2.7722 /_ -120.0    1.0003     4.800        2-3        4.8 /_  -90.0         1
   -      3       2.7708 /_  120.0   0.99984     4.800        3-1        4.8 /_  150.0         1
740 ..... 1       2.7708 /_    0.0   0.99984     4.800        1-2        4.8 /_   30.0         1
   -      2       2.7722 /_ -120.0    1.0003     4.800        2-3        4.8 /_  -90.0         1
   -      3       2.7708 /_  120.0   0.99984     4.800        3-1        4.8 /_  150.0         1
718 ..... 1       2.7708 /_    0.0   0.99984     4.800        1-2        4.8 /_   30.0         1
   -      2       2.7722 /_ -120.0    1.0003     4.800        2-3        4.8 /_  -90.0         1
   -      3       2.7708 /_  120.0   0.99984     4.800        3-1        4.8 /_  150.0         1
744 ..... 1       2.7708 /_    0.0   0.99984     4.800        1-2        4.8 /_   30.0         1
   -      2       2.7722 /_ -120.0    1.0003     4.800        2-3        4.8 /_  -90.0         1
   -      3       2.7708 /_  120.0   0.99984     4.800        3-1        4.8 /_  150.0         1
734 ..... 1       2.7708 /_    0.0   0.99984     4.800        1-2        4.8 /_   30.0         1
   -      2       2.7722 /_ -120.0    1.0003     4.800        2-3        4.8 /_  -90.0         1
   -      3       2.7708 /_  120.0   0.99984     4.800        3-1        4.8 /_  150.0         1
737 ..... 1       2.7708 /_    0.0   0.99984     4.800        1-2        4.8 /_   30.0         1
   -      2       2.7722 /_ -120.0    1.0003     4.800        2-3        4.8 /_  -90.0         1
   -      3       2.7708 /_  120.0   0.99984     4.800        3-1        4.8 /_  150.0         1
738 ..... 1       2.7708 /_    0.0   0.99984     4.800        1-2        4.8 /_   30.0         1
   -      2       2.7722 /_ -120.0    1.0003     4.800        2-3        4.8 /_  -90.0         1
   -      3       2.7708 /_  120.0   0.99984     4.800        3-1        4.8 /_  150.0         1
728 ..... 1       2.7708 /_    0.0   0.99984     4.800        1-2        4.8 /_   30.0         1
   -      2       2.7722 /_ -120.0    1.0003     4.800        2-3        4.8 /_  -90.0         1
   -      3       2.7708 /_  120.0   0.99984     4.800        3-1        4.8 /_  150.0         1
729 ..... 1       2.7708 /_    0.0   0.99984     4.800        1-2        4.8 /_   30.0         1
   -      2       2.7722 /_ -120.0    1.0003     4.800        2-3        4.8 /_  -90.0         1
   -      3       2.7708 /_  120.0   0.99984     4.800        3-1        4.8 /_  150.0         1
799R .... 1       2.7708 /_    0.0   0.99984     4.800        1-2        4.8 /_   30.0         1
   -      2       2.7722 /_ -120.0    1.0003     4.800        2-3        4.8 /_  -90.0         1
   -      3       2.7708 /_  120.0   0.99984     4.800        3-1        4.8 /_  150.0         1
